data_Movie_nu1000_modified_1.1.2_100.000000_0.000000_allcomponents

_cell_length_a  39.97000000
_cell_length_b  40.00000000
_cell_length_c  33.16000000
_cell_angle_alpha  90.00000000
_cell_angle_beta   90.00000000
_cell_angle_gamma  120.00000000


_symmetry_space_group_name_Hall ' P 1'
_symmetry_space_group_name_H-M  'P 1'
_symmetry_Int_Tables_number     1

loop_
_atom_site_label
_atom_site_type_symbol
_atom_site_forcefield_label
_atom_site_Cartn_x
_atom_site_Cartn_y
_atom_site_Cartn_z
_atom_site_charge
P        P   P      11.16100000  23.11100000  1.58800000  0.00000000
O        O   O      10.99700000  21.41000000  1.64400000  0.00000000
O        O   O      11.55400000  23.69700000  3.14600000  0.00000000
O        O   O      9.68800000  23.80900000  1.07200000  0.00000000
C        C   C      11.69100000  25.11900000  3.09900000  0.00000000
H        H   H      10.76900000  25.55600000  2.77500000  0.00000000
H        H   H      11.93700000  25.48700000  4.07400000  0.00000000
H        H   H      12.46900000  25.38000000  2.41300000  0.00000000
C        C   C      9.35800000  23.31800000 -0.23100000  0.00000000
H        H   H      9.25600000  22.25400000 -0.19600000  0.00000000
H        H   H      8.43700000  23.75500000 -0.55400000  0.00000000
H        H   H      10.13700000  23.57900000 -0.91700000  0.00000000
O        O   O      12.40400000  23.52800000  0.49100000  0.00000000
C        C   C      13.63600000  22.94500000  0.92300000  0.00000000
C        C   C      13.99800000  21.66400000  0.48200000  0.00000000
C        C   C      14.48200000  23.65200000  1.78700000  0.00000000
C        C   C      15.20600000  21.09200000  0.90600000  0.00000000
H        H   H      13.35200000  21.12300000 -0.17800000  0.00000000
C        C   C      15.69000000  23.08100000  2.21000000  0.00000000
H        H   H      14.20600000  24.63000000  2.12400000  0.00000000
C        C   C      16.05100000  21.80100000  1.77000000  0.00000000
H        H   H      15.48200000  20.11500000  0.56900000  0.00000000
H        H   H      16.33500000  23.62200000  2.87000000  0.00000000
N        N   N      17.31700000  21.20100000  2.21300000  0.00000000
O        O   O      18.06500000  21.82600000  2.97700000  0.00000000
O        O   O      17.63700000  20.07100000  1.82400000  0.00000000
